
OS:Version,
  {b75fc0d0-084b-430f-9c45-68b2ca0c5aaa}, !- Handle
  2.9.1;                                  !- Version Identifier

OS:Schedule:Constant,
  {7cf9dcab-4665-4ba1-bf7e-2832f3cdb71a}, !- Handle
  Always On Discrete,                     !- Name
  {53f80734-425d-4bb1-a09b-b5f14ef06691}, !- Schedule Type Limits Name
  1;                                      !- Value

OS:ScheduleTypeLimits,
  {53f80734-425d-4bb1-a09b-b5f14ef06691}, !- Handle
  Always On Discrete Limits,              !- Name
  0,                                      !- Lower Limit Value
  1,                                      !- Upper Limit Value
  Discrete,                               !- Numeric Type
  Availability;                           !- Unit Type

OS:Site,
  {84df88f5-7a35-4631-b533-5d8e10b21d42}, !- Handle
  Chicago Ohare Intl Ap_IL_USA,           !- Name
  41.98,                                  !- Latitude {deg}
  -87.92,                                 !- Longitude {deg}
  -6,                                     !- Time Zone {hr}
  201,                                    !- Elevation {m}
  City;                                   !- Terrain

OS:SimulationControl,
  {61ffc991-891a-457c-b6d7-bf1408d1c5f5}, !- Handle
  Yes,                                    !- Do Zone Sizing Calculation
  Yes,                                    !- Do System Sizing Calculation
  Yes,                                    !- Do Plant Sizing Calculation
  No,                                     !- Run Simulation for Sizing Periods
  Yes,                                    !- Run Simulation for Weather File Run Periods
  0.04,                                   !- Loads Convergence Tolerance Value
  0.2,                                    !- Temperature Convergence Tolerance Value {deltaC}
  FullInteriorAndExterior,                !- Solar Distribution
  25,                                     !- Maximum Number of Warmup Days
  6;                                      !- Minimum Number of Warmup Days

OS:Connection,
  {d73735f3-c06a-4fee-95bf-70fe7264cafc}, !- Handle
  {bc8e279c-7123-496d-972f-712aeebbd9c1}, !- Name
  ,                                       !- Source Object
  11,                                     !- Outlet Port
  ,                                       !- Target Object
  2;                                      !- Inlet Port

OS:Connection,
  {8fef2863-4f6e-4efe-b17c-db938412bf76}, !- Handle
  {63a5dd7c-219b-4fbc-a31c-2ab2e0c699ba}, !- Name
  ,                                       !- Source Object
  11,                                     !- Outlet Port
  ,                                       !- Target Object
  2;                                      !- Inlet Port

OS:Connection,
  {f98bb4d2-6a23-4722-87ad-c4591208dd7c}, !- Handle
  {5a0cd542-a037-4dfb-95b4-031926cdc2f8}, !- Name
  ,                                       !- Source Object
  11,                                     !- Outlet Port
  ,                                       !- Target Object
  2;                                      !- Inlet Port

OS:Connection,
  {132fe126-d4ac-4e9c-a2f8-22b9292c0330}, !- Handle
  {7ca3a7d5-afc1-49d3-b5e4-bf436e8b3861}, !- Name
  ,                                       !- Source Object
  11,                                     !- Outlet Port
  ,                                       !- Target Object
  2;                                      !- Inlet Port

OS:Connection,
  {dd666e19-8172-46e2-8df8-0b8707384c5f}, !- Handle
  {c331ce9b-baf0-43fb-a300-838c23012005}, !- Name
  ,                                       !- Source Object
  11,                                     !- Outlet Port
  ,                                       !- Target Object
  2;                                      !- Inlet Port

OS:Connection,
  {92ba8c13-c1ef-4047-86d6-d37f1912c864}, !- Handle
  {83d3980a-af8b-4fc0-8331-dcf090f17437}, !- Name
  ,                                       !- Source Object
  11,                                     !- Outlet Port
  ,                                       !- Target Object
  2;                                      !- Inlet Port

OS:Connection,
  {d343c833-3792-4d27-9b3e-6be449444be5}, !- Handle
  {c7d81e6c-d083-430b-9f5d-442c4f15455f}, !- Name
  ,                                       !- Source Object
  11,                                     !- Outlet Port
  ,                                       !- Target Object
  2;                                      !- Inlet Port

OS:Connection,
  {c327b335-348a-4dfe-837e-8474d45f5449}, !- Handle
  {3d9e7fb0-1a02-419e-ac58-13804ee9eafc}, !- Name
  ,                                       !- Source Object
  11,                                     !- Outlet Port
  ,                                       !- Target Object
  2;                                      !- Inlet Port

OS:Connection,
  {6af4a0bb-e35d-46a0-a416-cc522e658d49}, !- Handle
  {03e88399-e84f-4ef2-bb81-bfedcf96b70b}, !- Name
  ,                                       !- Source Object
  11,                                     !- Outlet Port
  ,                                       !- Target Object
  2;                                      !- Inlet Port

OS:Connection,
  {f2b424a3-7cba-448f-a0cf-9e7b4de1a7cd}, !- Handle
  {96023343-0bc0-4c38-8c59-81223c5cdef1}, !- Name
  ,                                       !- Source Object
  11,                                     !- Outlet Port
  ,                                       !- Target Object
  2;                                      !- Inlet Port

OS:Connection,
  {48009879-8c88-4b89-88a7-8c23862c5c2b}, !- Handle
  {29f2fed0-64bd-41a9-8114-34b172105f98}, !- Name
  ,                                       !- Source Object
  11,                                     !- Outlet Port
  ,                                       !- Target Object
  2;                                      !- Inlet Port

OS:Connection,
  {54c0d0bf-69f8-42a4-ab97-d6fe40187511}, !- Handle
  {19dae71a-b10f-46bd-9737-a6787dbde930}, !- Name
  ,                                       !- Source Object
  11,                                     !- Outlet Port
  ,                                       !- Target Object
  2;                                      !- Inlet Port

OS:Connection,
  {d91eb132-bf7c-4fc5-bd07-c96b07d4bb1a}, !- Handle
  {8b6dbead-fee8-4834-980b-9f448d8d809c}, !- Name
  ,                                       !- Source Object
  11,                                     !- Outlet Port
  ,                                       !- Target Object
  2;                                      !- Inlet Port

OS:Connection,
  {ca041632-4f37-4b5a-8fc7-7e305fb6b116}, !- Handle
  {f3304320-77aa-4c6b-850f-96ad888df4f3}, !- Name
  ,                                       !- Source Object
  11,                                     !- Outlet Port
  ,                                       !- Target Object
  2;                                      !- Inlet Port

OS:Connection,
  {84b16241-ddf6-4136-b2b8-ee7556a813b6}, !- Handle
  {e0a9088c-f9fa-4d4f-8635-60281c9fb9e0}, !- Name
  ,                                       !- Source Object
  11,                                     !- Outlet Port
  ,                                       !- Target Object
  2;                                      !- Inlet Port

OS:RunPeriod,
  {9f07c868-c20e-43c3-9549-bf5f7e32de01}, !- Handle
  Run Period 1,                           !- Name
  1,                                      !- Begin Month
  1,                                      !- Begin Day of Month
  12,                                     !- End Month
  31,                                     !- End Day of Month
  No,                                     !- Use Weather File Holidays and Special Days
  No,                                     !- Use Weather File Daylight Saving Period
  No,                                     !- Apply Weekend Holiday Rule
  Yes,                                    !- Use Weather File Rain Indicators
  Yes,                                    !- Use Weather File Snow Indicators
  ;                                       !- Number of Times Runperiod to be Repeated

OS:YearDescription,
  {2759562d-6e36-40de-aa86-5c2198a9d34c}, !- Handle
  ,                                       !- Calendar Year
  Sunday;                                 !- Day of Week for Start Day

OS:Connection,
  {93450f20-b731-4c96-93ea-9907c9b9c508}, !- Handle
  {350bdb00-5421-4f2c-8d60-0fb4f77ca206}, !- Name
  ,                                       !- Source Object
  11,                                     !- Outlet Port
  ,                                       !- Target Object
  2;                                      !- Inlet Port

OS:Connection,
  {b0eef434-e5c9-42a4-9836-678cd2bc8ef0}, !- Handle
  {0e7c8519-c383-498f-824a-3cdbeda16257}, !- Name
  ,                                       !- Source Object
  11,                                     !- Outlet Port
  ,                                       !- Target Object
  2;                                      !- Inlet Port

OS:Connection,
  {5ea7b31b-0c0f-43a5-ad3b-6370df1ad53d}, !- Handle
  {31f98934-8c83-4683-af57-b49747d87333}, !- Name
  ,                                       !- Source Object
  11,                                     !- Outlet Port
  ,                                       !- Target Object
  2;                                      !- Inlet Port

OS:Connection,
  {799fc578-8aa3-4869-b2c4-4eeb7d13493f}, !- Handle
  {e11d8b3d-e1c4-4959-b54c-919f6a215f39}, !- Name
  ,                                       !- Source Object
  11,                                     !- Outlet Port
  ,                                       !- Target Object
  2;                                      !- Inlet Port

OS:Building,
  {f4a2a10e-fa7a-44e8-868b-eefe282ad0b3}, !- Handle
  -LargeOfficeDetailed-ASHRAE 169-2006-5A created: 2020-03-26 09:34:21 -0700, !- Name
  ,                                       !- Building Sector Type
  0,                                      !- North Axis {deg}
  ,                                       !- Nominal Floor to Floor Height {m}
  ,                                       !- Space Type Name
  {3074c6a5-7ce5-4dbc-a282-ee659c610b2e}, !- Default Construction Set Name
  ,                                       !- Default Schedule Set Name
  13,                                     !- Standards Number of Stories
  12,                                     !- Standards Number of Above Ground Stories
  ,                                       !- Standards Template
  LargeOfficeDetailed,                    !- Standards Building Type
  ,                                       !- Standards Number of Living Units
  ,                                       !- Relocatable
  ;                                       !- Nominal Floor to Ceiling Height {m}

OS:Connection,
  {c43cdc88-c407-4060-92ad-71357cafa583}, !- Handle
  {c19012fc-3fc0-4353-aa79-f7383acaf4a4}, !- Name
  ,                                       !- Source Object
  11,                                     !- Outlet Port
  ,                                       !- Target Object
  2;                                      !- Inlet Port

OS:Connection,
  {23477f39-865b-42f6-a25c-86e3ab2aa4e2}, !- Handle
  {e232d40b-18f6-4140-8a1d-8166b83de1da}, !- Name
  ,                                       !- Source Object
  11,                                     !- Outlet Port
  ,                                       !- Target Object
  2;                                      !- Inlet Port

OS:Connection,
  {6fd132df-9f9f-462f-9d4f-52214292da4d}, !- Handle
  {4e2e8765-ca55-4659-85ce-cf8f2272aed6}, !- Name
  ,                                       !- Source Object
  11,                                     !- Outlet Port
  ,                                       !- Target Object
  2;                                      !- Inlet Port

OS:Connection,
  {41bfaf43-2de8-4986-b739-5017f1d96d2c}, !- Handle
  {82410538-74a6-494d-8515-c6fa23c3e797}, !- Name
  ,                                       !- Source Object
  11,                                     !- Outlet Port
  ,                                       !- Target Object
  2;                                      !- Inlet Port

OS:Timestep,
  {4e7f6c04-4299-410d-be7b-be7dcfccb23b}, !- Handle
  4;                                      !- Number of Timesteps per Hour

OS:ShadowCalculation,
  {880846cf-e6b0-4d18-9240-972f6fdbf885}, !- Handle
  30,                                     !- Calculation Frequency
  15000;                                  !- Maximum Figures in Shadow Overlap Calculations

OS:HeatBalanceAlgorithm,
  {d15766a3-01ad-434a-bfa0-6c3a9aea2f23}, !- Handle
  ConductionTransferFunction,             !- Algorithm
  200;                                    !- Surface Temperature Upper Limit {C}

OS:ClimateZones,
  {354bb555-bb07-4178-b99e-9f7c0d752e3f}, !- Handle
  ,                                       !- Active Institution
  ,                                       !- Active Year
  ASHRAE,                                 !- Climate Zone Institution Name 1
  ANSI/ASHRAE Standard 169,               !- Climate Zone Document Name 1
  2006,                                   !- Climate Zone Document Year 1
  5A;                                     !- Climate Zone Value 1

OS:LifeCycleCost:Parameters,
  {c0c5695a-8d81-4b4e-b069-bfc24f3cbf2d}, !- Handle
  FEMP,                                   !- Analysis Type
  ,                                       !- Discounting Convention
  ,                                       !- Inflation Approach
  ,                                       !- Real Discount Rate
  ,                                       !- Nominal Discount Rate
  ,                                       !- Inflation
  ,                                       !- Base Date Month
  ,                                       !- Base Date Year
  ,                                       !- Service Date Month
  ,                                       !- Service Date Year
  ,                                       !- Length of Study Period in Years
  ,                                       !- Tax Rate
  ,                                       !- Depreciation Method
  Yes;                                    !- Use NIST Fuel Escalation Rates

OS:Facility,
  {51b789a9-d06c-4a6d-82e9-0ab21f1ea0dd}; !- Handle

OS:Space,
  {028af023-65bd-494f-805d-65623355f305}, !- Handle
  OpenOffice_Basement_ZN_1,               !- Name
  {55901ff9-4a1c-46a0-8384-61dd0c18e8fd}, !- Space Type Name
  ,                                       !- Default Construction Set Name
  ,                                       !- Default Schedule Set Name
  -0,                                     !- Direction of Relative North {deg}
  0,                                      !- X Origin {m}
  0,                                      !- Y Origin {m}
  -3.17641024594195e-014,                 !- Z Origin {m}
  {c136f41b-5899-4461-9ab1-ce81a1bb07cd}, !- Building Story Name
  {fe4782c3-56fa-41c7-90c7-7f8e3da401fa}, !- Thermal Zone Name
  ,                                       !- Part of Total Floor Area
  ;                                       !- Design Specification Outdoor Air Object Name

OS:Surface,
  {802e8ff6-a345-47ad-9880-24246e50b9d0}, !- Handle
  Surface 7,                              !- Name
  Floor,                                  !- Surface Type
  {e12823af-c428-42f3-937a-7db2faacaaca}, !- Construction Name
  {028af023-65bd-494f-805d-65623355f305}, !- Space Name
  Ground,                                 !- Outside Boundary Condition
  ,                                       !- Outside Boundary Condition Object
  NoSun,                                  !- Sun Exposure
  NoWind,                                 !- Wind Exposure
  ,                                       !- View Factor to Ground
  ,                                       !- Number of Vertices
  46.0416275, 12.1618375, -2.4384,        !- X,Y,Z Vertex 1 {m}
  46.0416275, 0, -2.4384,                 !- X,Y,Z Vertex 2 {m}
  16.0797875, 0, -2.4384,                 !- X,Y,Z Vertex 3 {m}
  16.0797875, 12.1618375, -2.4384;        !- X,Y,Z Vertex 4 {m}

OS:Surface,
  {53a1330a-3976-4001-9634-0bb0805673a4}, !- Handle
  Surface 8,                              !- Name
  RoofCeiling,                            !- Surface Type
  ,                                       !- Construction Name
  {028af023-65bd-494f-805d-65623355f305}, !- Space Name
  Surface,                                !- Outside Boundary Condition
  {d20033a3-c120-4f3c-b46d-c411b963c80d}, !- Outside Boundary Condition Object
  NoSun,                                  !- Sun Exposure
  NoWind,                                 !- Wind Exposure
  ,                                       !- View Factor to Ground
  ,                                       !- Number of Vertices
  46.0416275, 0, 2.31011654250324e-014,   !- X,Y,Z Vertex 1 {m}
  46.0416275, 12.1618375, 2.31011654250324e-014, !- X,Y,Z Vertex 2 {m}
  41.7576, 12.1618375, -5.12948915010911e-030, !- X,Y,Z Vertex 3 {m}
  41.7576, -9.9636129237382e-017, -5.12948915010911e-030; !- X,Y,Z Vertex 4 {m}

OS:Surface,
  {11db6f98-7620-4c19-b2f9-04176446a5f0}, !- Handle
  Surface 9,                              !- Name
  Wall,                                   !- Surface Type
  {dde6f9f9-22a2-4ee0-a931-044debab4a09}, !- Construction Name
  {028af023-65bd-494f-805d-65623355f305}, !- Space Name
  Ground,                                 !- Outside Boundary Condition
  ,                                       !- Outside Boundary Condition Object
  NoSun,                                  !- Sun Exposure
  NoWind,                                 !- Wind Exposure
  0,                                      !- View Factor to Ground
  ,                                       !- Number of Vertices
  16.0797875, 0, 2.31011654250324e-014,   !- X,Y,Z Vertex 1 {m}
  16.0797875, 0, -2.4384,                 !- X,Y,Z Vertex 2 {m}
  46.0416275, 0, -2.4384,                 !- X,Y,Z Vertex 3 {m}
  46.0416275, 0, 2.31011654250324e-014;   !- X,Y,Z Vertex 4 {m}

OS:Surface,
  {53807301-7187-4754-9cbd-5868b3641d01}, !- Handle
  Surface 10,                             !- Name
  Wall,                                   !- Surface Type
  ,                                       !- Construction Name
  {028af023-65bd-494f-805d-65623355f305}, !- Space Name
  Surface,                                !- Outside Boundary Condition
  {af34c54d-b3b9-41c7-bd8c-ebabfad9aae9}, !- Outside Boundary Condition Object
  NoSun,                                  !- Sun Exposure
  NoWind,                                 !- Wind Exposure
  ,                                       !- View Factor to Ground
  ,                                       !- Number of Vertices
  16.0797875, 12.1618375, 2.31011654250324e-014, !- X,Y,Z Vertex 1 {m}
  16.0797875, 12.1618375, -2.4384,        !- X,Y,Z Vertex 2 {m}
  16.0797875, 0, -2.4384,                 !- X,Y,Z Vertex 3 {m}
  16.0797875, 0, 2.31011654250324e-014;   !- X,Y,Z Vertex 4 {m}

OS:Surface,
  {92346f21-933e-4dc4-9133-d65a286c47be}, !- Handle
  Surface 11,                             !- Name
  Wall,                                   !- Surface Type
  ,                                       !- Construction Name
  {028af023-65bd-494f-805d-65623355f305}, !- Space Name
  Surface,                                !- Outside Boundary Condition
  {f6ff09bb-1132-4612-a93a-7cf71bfb0796}, !- Outside Boundary Condition Object
  NoSun,                                  !- Sun Exposure
  NoWind,                                 !- Wind Exposure
  ,                                       !- View Factor to Ground
  ,                                       !- Number of Vertices
  35.3568, 12.1618375, 2.31011654250324e-014, !- X,Y,Z Vertex 1 {m}
  35.3568, 12.1618375, -2.4384,           !- X,Y,Z Vertex 2 {m}
  16.0797875, 12.1618375, -2.4384,        !- X,Y,Z Vertex 3 {m}
  16.0797875, 12.1618375, 2.31011654250324e-014; !- X,Y,Z Vertex 4 {m}

OS:Surface,
  {638171c0-d9de-4262-ae60-5c8a36a29186}, !- Handle
  Surface 12,                             !- Name
  Wall,                                   !- Surface Type
  ,                                       !- Construction Name
  {028af023-65bd-494f-805d-65623355f305}, !- Space Name
  Surface,                                !- Outside Boundary Condition
  {9aeb3637-01cd-4e78-aa77-c49914ba1f5f}, !- Outside Boundary Condition Object
  NoSun,                                  !- Sun Exposure
  NoWind,                                 !- Wind Exposure
  ,                                       !- View Factor to Ground
  ,                                       !- Number of Vertices
  46.0416275, 0, 2.31011654250324e-014,   !- X,Y,Z Vertex 1 {m}
  46.0416275, 0, -2.4384,                 !- X,Y,Z Vertex 2 {m}
  46.0416275, 12.1618375, -2.4384,        !- X,Y,Z Vertex 3 {m}
  46.0416275, 12.1618375, 2.31011654250324e-014; !- X,Y,Z Vertex 4 {m}

OS:Space,
  {221e8adf-462f-4102-abb1-0bbedcc1010c}, !- Handle
  Corridor_Basement_ZN_1,                 !- Name
  {8162f8cb-4a27-4628-8355-e278261dfb9a}, !- Space Type Name
  ,                                       !- Default Construction Set Name
  ,                                       !- Default Schedule Set Name
  -0,                                     !- Direction of Relative North {deg}
  0,                                      !- X Origin {m}
  0,                                      !- Y Origin {m}
  -3.17641024594195e-014,                 !- Z Origin {m}
  {c136f41b-5899-4461-9ab1-ce81a1bb07cd}, !- Building Story Name
  {d5e490d8-6ea3-48a6-9836-2fd82be55aea}, !- Thermal Zone Name
  ,                                       !- Part of Total Floor Area
  ,                                       !- Design Specification Outdoor Air Object Name
  ;                                       !- Building Unit Name

OS:Surface,
  {258635a7-168d-4200-94db-dc4618b08d2f}, !- Handle
  Surface 13,                             !- Name
  Floor,                                  !- Surface Type
  {e12823af-c428-42f3-937a-7db2faacaaca}, !- Construction Name
  {221e8adf-462f-4102-abb1-0bbedcc1010c}, !- Space Name
  Ground,                                 !- Outside Boundary Condition
  ,                                       !- Outside Boundary Condition Object
  NoSun,                                  !- Sun Exposure
  NoWind,                                 !- Wind Exposure
  ,                                       !- View Factor to Ground
  ,                                       !- Number of Vertices
  17.6037875, 36.5458375, -2.4384,        !- X,Y,Z Vertex 1 {m}
  17.6037875, 13.6858375, -2.4384,        !- X,Y,Z Vertex 2 {m}
  35.3568, 13.6858375, -2.4384,           !- X,Y,Z Vertex 3 {m}
  35.3568, 12.1618375, -2.4384,           !- X,Y,Z Vertex 4 {m}
  16.0797875, 12.1618375, -2.4384,        !- X,Y,Z Vertex 5 {m}
  16.0797875, 36.5458375, -2.4384;        !- X,Y,Z Vertex 6 {m}

OS:Surface,
  {eab8fd23-f85f-4a65-96f1-d200c9d74915}, !- Handle
  Surface 14,                             !- Name
  Wall,                                   !- Surface Type
  ,                                       !- Construction Name
  {221e8adf-462f-4102-abb1-0bbedcc1010c}, !- Space Name
  Surface,                                !- Outside Boundary Condition
  {a5c6639e-98c3-43b2-ab86-54fb5f1341f5}, !- Outside Boundary Condition Object
  NoSun,                                  !- Sun Exposure
  NoWind,                                 !- Wind Exposure
  ,                                       !- View Factor to Ground
  ,                                       !- Number of Vertices
  17.6037875, 36.5458375, 2.31011654250324e-014, !- X,Y,Z Vertex 1 {m}
  17.6037875, 36.5458375, -2.4384,        !- X,Y,Z Vertex 2 {m}
  16.0797875, 36.5458375, -2.4384,        !- X,Y,Z Vertex 3 {m}
  16.0797875, 36.5458375, 2.08245130510991e-014; !- X,Y,Z Vertex 4 {m}

OS:Surface,
  {235e931c-dcef-4394-960d-aee6914558e3}, !- Handle
  Surface 15,                             !- Name
  Wall,                                   !- Surface Type
  ,                                       !- Construction Name
  {221e8adf-462f-4102-abb1-0bbedcc1010c}, !- Space Name
  Surface,                                !- Outside Boundary Condition
  {8257920b-f3e4-4a13-bf23-04b663e46c5f}, !- Outside Boundary Condition Object
  NoSun,                                  !- Sun Exposure
  NoWind,                                 !- Wind Exposure
  ,                                       !- View Factor to Ground
  ,                                       !- Number of Vertices
  16.0797875, 36.5458375, 2.08245130510991e-014, !- X,Y,Z Vertex 1 {m}
  16.0797875, 36.5458375, -2.4384,        !- X,Y,Z Vertex 2 {m}
  16.0797875, 12.1618375, -2.4384,        !- X,Y,Z Vertex 3 {m}
  16.0797875, 12.1618375, 9.58513002759797e-015; !- X,Y,Z Vertex 4 {m}

OS:Surface,
  {f5f11691-525d-4fad-8719-b34e2d02e833}, !- Handle
  Surface 16,                             !- Name
  RoofCeiling,                            !- Surface Type
  ,                                       !- Construction Name
  {221e8adf-462f-4102-abb1-0bbedcc1010c}, !- Space Name
  Surface,                                !- Outside Boundary Condition
  {4a04c2ea-ee1f-4d41-b49b-045987d7a198}, !- Outside Boundary Condition Object
  NoSun,                                  !- Sun Exposure
  NoWind,                                 !- Wind Exposure
  ,                                       !- View Factor to Ground
  ,                                       !- Number of Vertices
  17.6037875, 13.6858375, 2.23280116459253e-014, !- X,Y,Z Vertex 1 {m}
  17.6037875, 35.0218375, 2.48408728770166e-014, !- X,Y,Z Vertex 2 {m}
  16.58112, 35.0218375, 1.68092972453691e-014, !- X,Y,Z Vertex 3 {m}
  16.58112, 13.6858375, 1.42964360142778e-014; !- X,Y,Z Vertex 4 {m}

OS:Surface,
  {f6ff09bb-1132-4612-a93a-7cf71bfb0796}, !- Handle
  Surface 17,                             !- Name
  Wall,                                   !- Surface Type
  ,                                       !- Construction Name
  {221e8adf-462f-4102-abb1-0bbedcc1010c}, !- Space Name
  Surface,                                !- Outside Boundary Condition
  {92346f21-933e-4dc4-9133-d65a286c47be}, !- Outside Boundary Condition Object
  NoSun,                                  !- Sun Exposure
  NoWind,                                 !- Wind Exposure
  ,                                       !- View Factor to Ground
  ,                                       !- Number of Vertices
  16.0797875, 12.1618375, 9.58513002759797e-015, !- X,Y,Z Vertex 1 {m}
  16.0797875, 12.1618375, -2.4384,        !- X,Y,Z Vertex 2 {m}
  35.3568, 12.1618375, -2.4384,           !- X,Y,Z Vertex 3 {m}
  35.3568, 12.1618375, 2.29680037883233e-014; !- X,Y,Z Vertex 4 {m}

OS:Surface,
  {cb7a6704-3ef6-431b-ba9e-fe18d0032187}, !- Handle
  Surface 18,                             !- Name
  Wall,                                   !- Surface Type
  ,                                       !- Construction Name
  {221e8adf-462f-4102-abb1-0bbedcc1010c}, !- Space Name
  Surface,                                !- Outside Boundary Condition
  {0eccc684-7cde-4237-a9fb-7bcbd5351b65}, !- Outside Boundary Condition Object
  NoSun,                                  !- Sun Exposure
  NoWind,                                 !- Wind Exposure
  ,                                       !- View Factor to Ground
  ,                                       !- Number of Vertices
  35.3568, 12.1618375, 2.29680037883233e-014, !- X,Y,Z Vertex 1 {m}
  35.3568, 12.1618375, -2.4384,           !- X,Y,Z Vertex 2 {m}
  35.3568, 13.6858375, -2.4384,           !- X,Y,Z Vertex 3 {m}
  35.3568, 13.6858375, 2.36704652272921e-014; !- X,Y,Z Vertex 4 {m}

OS:Surface,
  {4cd299cc-3cac-46f7-9f01-0ed88aee9870}, !- Handle
  Surface 19,                             !- Name
  Wall,                                   !- Surface Type
  ,                                       !- Construction Name
  {221e8adf-462f-4102-abb1-0bbedcc1010c}, !- Space Name
  Surface,                                !- Outside Boundary Condition
  {a0645a15-5aff-433f-b9ca-ea3c05a0e718}, !- Outside Boundary Condition Object
  NoSun,                                  !- Sun Exposure
  NoWind,                                 !- Wind Exposure
  ,                                       !- View Factor to Ground
  ,                                       !- Number of Vertices
  17.6037875, 13.6858375, 2.59888111031614e-014, !- X,Y,Z Vertex 1 {m}
  35.3568, 13.6858375, 2.36704652272921e-014, !- X,Y,Z Vertex 2 {m}
  35.3568, 13.6858375, -2.4384,           !- X,Y,Z Vertex 3 {m}
  17.6037875, 13.6858375, -2.4384;        !- X,Y,Z Vertex 4 {m}

OS:Surface,
  {afffcbd1-000d-4894-abf4-e2d7f338b400}, !- Handle
  Surface 20,                             !- Name
  Wall,                                   !- Surface Type
  ,                                       !- Construction Name
  {221e8adf-462f-4102-abb1-0bbedcc1010c}, !- Space Name
  Surface,                                !- Outside Boundary Condition
  {38cb8931-7a38-4a41-a800-455c92736870}, !- Outside Boundary Condition Object
  NoSun,                                  !- Sun Exposure
  NoWind,                                 !- Wind Exposure
  ,                                       !- View Factor to Ground
  ,                                       !- Number of Vertices
  17.6037875, 13.6858375, 2.59888111031614e-014, !- X,Y,Z Vertex 1 {m}
  17.6037875, 13.6858375, -2.4384,        !- X,Y,Z Vertex 2 {m}
  17.6037875, 18.8674375, -2.4384,        !- X,Y,Z Vertex 3 {m}
  17.6037875, 18.8674375, 2.31011654250324e-014; !- X,Y,Z Vertex 4 {m}

OS:Space,
  {6e08b2d6-7428-43a2-bb23-1dba7f241ea7}, !- Handle
  EnclosedOffice_Basement_ZN_1,           !- Name
  {bf012c9f-e983-4664-89cb-42c836826e39}, !- Space Type Name
  ,                                       !- Default Construction Set Name
  ,                                       !- Default Schedule Set Name
  -0,                                     !- Direction of Relative North {deg}