
OS:Version,
  {016d627a-7a97-4144-9362-21dc4e1f939c}, !- Handle
  2.9.1;                                  !- Version Identifier

OS:Schedule:Constant,
  {ffffc0ae-7ceb-4afb-8746-6ac697c138f2}, !- Handle
  Always On Discrete,                     !- Name
  {dda57079-50b8-407a-9377-06f7fb70043e}, !- Schedule Type Limits Name
  1;                                      !- Value

OS:ScheduleTypeLimits,
  {dda57079-50b8-407a-9377-06f7fb70043e}, !- Handle
  Always On Discrete Limits,              !- Name
  0,                                      !- Lower Limit Value
  1,                                      !- Upper Limit Value
  Discrete,                               !- Numeric Type
  Availability;                           !- Unit Type

OS:Space,
  {dead6e0b-93b8-47d9-be64-14bafc65d3ed}, !- Handle
  ConfRoom_Bot_1,                         !- Name
  {6f3116e0-a595-48ab-a8e7-476ff64d83a6}, !- Space Type Name
  ,                                       !- Default Construction Set Name
  ,                                       !- Default Schedule Set Name
  -0,                                     !- Direction of Relative North {deg}
  0,                                      !- X Origin {m}
  -7.21911419532262e-016,                 !- Y Origin {m}
  0,                                      !- Z Origin {m}
  {6ae3b0c2-4c48-48f5-899c-4535e4abda9b}, !- Building Story Name
  {a1fb59f4-3d06-46da-b1a4-0ec18d4564df}, !- Thermal Zone Name
  ,                                       !- Part of Total Floor Area
  ,                                       !- Design Specification Outdoor Air Object Name
  ;                                       !- Building Unit Name

OS:Surface,
  {4f6ce9ef-b8a0-47b3-9969-91dba85f795f}, !- Handle
  Surface 1,                              !- Name
  Floor,                                  !- Surface Type
  ,                                       !- Construction Name
  {dead6e0b-93b8-47d9-be64-14bafc65d3ed}, !- Space Name
  Ground,                                 !- Outside Boundary Condition
  ,                                       !- Outside Boundary Condition Object
  NoSun,                                  !- Sun Exposure
  NoWind,                                 !- Wind Exposure
  ,                                       !- View Factor to Ground
  ,                                       !- Number of Vertices
  8.0692625, 5.3419375, 0,                !- X,Y,Z Vertex 1 {m}
  8.0692625, 0, 0,                        !- X,Y,Z Vertex 2 {m}
  0, 0, 0,                                !- X,Y,Z Vertex 3 {m}
  0, 5.3419375, 0;                        !- X,Y,Z Vertex 4 {m}

OS:Surface,
  {ee216b85-e4fa-45dc-adf5-783ca88f1a36}, !- Handle
  Surface 2,                              !- Name
  Wall,                                   !- Surface Type
  ,                                       !- Construction Name
  {dead6e0b-93b8-47d9-be64-14bafc65d3ed}, !- Space Name
  Outdoors,                               !- Outside Boundary Condition
  ,                                       !- Outside Boundary Condition Object
  SunExposed,                             !- Sun Exposure
  WindExposed,                            !- Wind Exposure
  ,                                       !- View Factor to Ground
  ,                                       !- Number of Vertices
  0, 0, 2.7432,                           !- X,Y,Z Vertex 1 {m}
  0, 0, 0,                                !- X,Y,Z Vertex 2 {m}
  8.0692625, 0, 0,                        !- X,Y,Z Vertex 3 {m}
  8.0692625, 0, 2.7432;                   !- X,Y,Z Vertex 4 {m}

OS:Surface,
  {cbd6def7-e055-4b6a-88bf-bbe3cb1b13da}, !- Handle
  Surface 3,                              !- Name
  Wall,                                   !- Surface Type
  ,                                       !- Construction Name
  {dead6e0b-93b8-47d9-be64-14bafc65d3ed}, !- Space Name
  Outdoors,                               !- Outside Boundary Condition
  ,                                       !- Outside Boundary Condition Object
  SunExposed,                             !- Sun Exposure
  WindExposed,                            !- Wind Exposure
  ,                                       !- View Factor to Ground
  ,                                       !- Number of Vertices
  0, 5.3419375, 2.7432,                   !- X,Y,Z Vertex 1 {m}
  0, 5.3419375, 0,                        !- X,Y,Z Vertex 2 {m}
  0, 0, 0,                                !- X,Y,Z Vertex 3 {m}
  0, 0, 2.7432;                           !- X,Y,Z Vertex 4 {m}

OS:Surface,
  {dc55e7e1-f28e-4c44-9c0c-ae5c75980c3a}, !- Handle
  Surface 4,                              !- Name
  Wall,                                   !- Surface Type
  ,                                       !- Construction Name
  {dead6e0b-93b8-47d9-be64-14bafc65d3ed}, !- Space Name
  Surface,                                !- Outside Boundary Condition
  {cf00a667-0aef-4d0e-931f-a1e797d33f2f}, !- Outside Boundary Condition Object
  NoSun,                                  !- Sun Exposure
  NoWind,                                 !- Wind Exposure
  ,                                       !- View Factor to Ground
  ,                                       !- Number of Vertices
  8.0692625, 0, 2.7432,                   !- X,Y,Z Vertex 1 {m}
  8.0692625, 0, 0,                        !- X,Y,Z Vertex 2 {m}
  8.0692625, 5.3419375, 0,                !- X,Y,Z Vertex 3 {m}
  8.0692625, 5.3419375, 2.7432;           !- X,Y,Z Vertex 4 {m}

OS:Surface,
  {d0520f38-85f4-4064-8058-2959a439f858}, !- Handle
  Surface 5,                              !- Name
  RoofCeiling,                            !- Surface Type
  ,                                       !- Construction Name
  {dead6e0b-93b8-47d9-be64-14bafc65d3ed}, !- Space Name
  Surface,                                !- Outside Boundary Condition
  {e4b4dc62-f283-414a-ac0b-adb41b720f80}, !- Outside Boundary Condition Object
  NoSun,                                  !- Sun Exposure
  NoWind,                                 !- Wind Exposure
  ,                                       !- View Factor to Ground
  ,                                       !- Number of Vertices
  8.0692625, 0, 2.7432,                   !- X,Y,Z Vertex 1 {m}
  8.0692625, 5.3419375, 2.7432,           !- X,Y,Z Vertex 2 {m}
  0, 5.3419375, 2.7432,                   !- X,Y,Z Vertex 3 {m}
  0, 0, 2.7432;                           !- X,Y,Z Vertex 4 {m}

OS:Surface,
  {8692d635-5bfc-4d4a-ab16-6d36862bfb62}, !- Handle
  Surface 6,                              !- Name
  Wall,                                   !- Surface Type
  ,                                       !- Construction Name
  {dead6e0b-93b8-47d9-be64-14bafc65d3ed}, !- Space Name
  Surface,                                !- Outside Boundary Condition
  {7af40f9c-3e7b-49b6-8759-017df8520c2a}, !- Outside Boundary Condition Object
  NoSun,                                  !- Sun Exposure
  NoWind,                                 !- Wind Exposure
  ,                                       !- View Factor to Ground
  ,                                       !- Number of Vertices
  8.0692625, 5.3419375, 2.7432,           !- X,Y,Z Vertex 1 {m}
  8.0692625, 5.3419375, 0,                !- X,Y,Z Vertex 2 {m}
  4.5037375, 5.3419375, 0,                !- X,Y,Z Vertex 3 {m}
  4.5037375, 5.3419375, 2.7432;           !- X,Y,Z Vertex 4 {m}

OS:Space,
  {3722a907-8e46-4db9-958e-74273550d93b}, !- Handle
  EnclosedOffice_Bot_3,                   !- Name
  {6c28f6d8-bae0-4a5f-aa32-5201d91b27d3}, !- Space Type Name
  ,                                       !- Default Construction Set Name
  ,                                       !- Default Schedule Set Name
  -0,                                     !- Direction of Relative North {deg}
  0,                                      !- X Origin {m}
  -1.6029653594091e-031,                  !- Y Origin {m}
  0,                                      !- Z Origin {m}
  {6ae3b0c2-4c48-48f5-899c-4535e4abda9b}, !- Building Story Name
  {f699ac92-7d82-4ce0-9d73-45660940e462}, !- Thermal Zone Name
  ,                                       !- Part of Total Floor Area
  ,                                       !- Design Specification Outdoor Air Object Name
  ;                                       !- Building Unit Name

OS:Surface,
  {06281163-a7c3-4bb2-8dfd-b2b1e724e646}, !- Handle
  Surface 7,                              !- Name
  Floor,                                  !- Surface Type
  ,                                       !- Construction Name
  {3722a907-8e46-4db9-958e-74273550d93b}, !- Space Name
  Ground,                                 !- Outside Boundary Condition
  ,                                       !- Outside Boundary Condition Object
  NoSun,                                  !- Sun Exposure
  NoWind,                                 !- Wind Exposure
  ,                                       !- View Factor to Ground
  ,                                       !- Number of Vertices
  16.5735, 5.3419375, 0,                  !- X,Y,Z Vertex 1 {m}
  16.5735, 0, 0,                          !- X,Y,Z Vertex 2 {m}
  8.0692625, 0, 0,                        !- X,Y,Z Vertex 3 {m}
  8.0692625, 5.3419375, 0;                !- X,Y,Z Vertex 4 {m}

OS:Surface,
  {14810237-4695-4b22-a6db-37edca1b81cb}, !- Handle
  Surface 8,                              !- Name
  Wall,                                   !- Surface Type
  ,                                       !- Construction Name
  {3722a907-8e46-4db9-958e-74273550d93b}, !- Space Name
  Surface,                                !- Outside Boundary Condition
  {df65ba66-691a-4bc7-ab66-a62103c480e9}, !- Outside Boundary Condition Object
  NoSun,                                  !- Sun Exposure
  NoWind,                                 !- Wind Exposure
  ,                                       !- View Factor to Ground
  ,                                       !- Number of Vertices
  16.5735, 0, 2.7432,                     !- X,Y,Z Vertex 1 {m}
  16.5735, 0, 0,                          !- X,Y,Z Vertex 2 {m}
  16.5735, 5.3419375, 0,                  !- X,Y,Z Vertex 3 {m}
  16.5735, 5.3419375, 2.7432;             !- X,Y,Z Vertex 4 {m}

OS:Surface,
  {f08cc2cf-59e9-4ab3-9f31-736d2720d8ba}, !- Handle
  Surface 9,                              !- Name
  RoofCeiling,                            !- Surface Type
  ,                                       !- Construction Name
  {3722a907-8e46-4db9-958e-74273550d93b}, !- Space Name
  Surface,                                !- Outside Boundary Condition
  {5f64776d-9382-4f3c-b7b7-601dca746ea6}, !- Outside Boundary Condition Object
  NoSun,                                  !- Sun Exposure
  NoWind,                                 !- Wind Exposure
  ,                                       !- View Factor to Ground
  ,                                       !- Number of Vertices
  16.5735, 0, 2.7432,                     !- X,Y,Z Vertex 1 {m}
  16.5735, 5.3419375, 2.7432,             !- X,Y,Z Vertex 2 {m}
  8.0692625, 5.3419375, 2.7432,           !- X,Y,Z Vertex 3 {m}
  8.0692625, 0, 2.7432;                   !- X,Y,Z Vertex 4 {m}

OS:Surface,
  {5c0cd1fa-0554-48ed-b89c-e2f023ca9f57}, !- Handle
  Surface 10,                             !- Name
  Wall,                                   !- Surface Type
  ,                                       !- Construction Name
  {3722a907-8e46-4db9-958e-74273550d93b}, !- Space Name
  Surface,                                !- Outside Boundary Condition
  {14f75553-0faa-4095-adfa-11cde0946c50}, !- Outside Boundary Condition Object
  NoSun,                                  !- Sun Exposure
  NoWind,                                 !- Wind Exposure
  ,                                       !- View Factor to Ground
  ,                                       !- Number of Vertices
  16.5735, 5.3419375, 2.7432,             !- X,Y,Z Vertex 1 {m}
  16.5735, 5.3419375, 0,                  !- X,Y,Z Vertex 2 {m}
  8.0692625, 5.3419375, 0,                !- X,Y,Z Vertex 3 {m}
  8.0692625, 5.3419375, 2.7432;           !- X,Y,Z Vertex 4 {m}

OS:Surface,
  {461fd235-e5a3-4976-a758-86cdaae6c00b}, !- Handle
  Surface 11,                             !- Name
  Wall,                                   !- Surface Type
  ,                                       !- Construction Name
  {3722a907-8e46-4db9-958e-74273550d93b}, !- Space Name
  Outdoors,                               !- Outside Boundary Condition
  ,                                       !- Outside Boundary Condition Object
  SunExposed,                             !- Sun Exposure
  WindExposed,                            !- Wind Exposure
  ,                                       !- View Factor to Ground
  ,                                       !- Number of Vertices
  8.0692625, 0, 2.7432,                   !- X,Y,Z Vertex 1 {m}
  8.0692625, 0, 0,                        !- X,Y,Z Vertex 2 {m}
  16.5735, 0, 0,                          !- X,Y,Z Vertex 3 {m}
  16.5735, 0, 2.7432;                     !- X,Y,Z Vertex 4 {m}

OS:Surface,
  {cf00a667-0aef-4d0e-931f-a1e797d33f2f}, !- Handle
  Surface 12,                             !- Name
  Wall,                                   !- Surface Type
  ,                                       !- Construction Name
  {3722a907-8e46-4db9-958e-74273550d93b}, !- Space Name
  Surface,                                !- Outside Boundary Condition
  {dc55e7e1-f28e-4c44-9c0c-ae5c75980c3a}, !- Outside Boundary Condition Object
  NoSun,                                  !- Sun Exposure
  NoWind,                                 !- Wind Exposure
  ,                                       !- View Factor to Ground
  ,                                       !- Number of Vertices
  8.0692625, 5.3419375, 2.7432,           !- X,Y,Z Vertex 1 {m}
  8.0692625, 5.3419375, 0,                !- X,Y,Z Vertex 2 {m}
  8.0692625, 0, 0,                        !- X,Y,Z Vertex 3 {m}
  8.0692625, 0, 2.7432;                   !- X,Y,Z Vertex 4 {m}

OS:Space,
  {234ac46c-ffc3-4573-99a3-a40a78cb0ee7}, !- Handle
  Lounge_Bot,                             !- Name
  {108b95fd-ec24-4315-a199-389de4c3c526}, !- Space Type Name
  ,                                       !- Default Construction Set Name
  ,                                       !- Default Schedule Set Name
  -0,                                     !- Direction of Relative North {deg}
  0,                                      !- X Origin {m}
  -1.6029653594091e-031,                  !- Y Origin {m}
  0,                                      !- Z Origin {m}
  {6ae3b0c2-4c48-48f5-899c-4535e4abda9b}, !- Building Story Name
  {1847c926-644e-4138-bca7-75770b4f5dd4}, !- Thermal Zone Name
  ,                                       !- Part of Total Floor Area
  ,                                       !- Design Specification Outdoor Air Object Name
  ;                                       !- Building Unit Name

OS:Surface,
  {654c4941-8477-4724-af24-46237acf2edc}, !- Handle
  Surface 13,                             !- Name
  Floor,                                  !- Surface Type
  ,                                       !- Construction Name
  {234ac46c-ffc3-4573-99a3-a40a78cb0ee7}, !- Space Name
  Ground,                                 !- Outside Boundary Condition
  ,                                       !- Outside Boundary Condition Object
  NoSun,                                  !- Sun Exposure
  NoWind,                                 !- Wind Exposure
  ,                                       !- View Factor to Ground
  ,                                       !- Number of Vertices
  33.3375, 5.3419375, 0,                  !- X,Y,Z Vertex 1 {m}
  33.3375, 0, 0,                          !- X,Y,Z Vertex 2 {m}
  16.5735, 0, 0,                          !- X,Y,Z Vertex 3 {m}
  16.5735, 5.3419375, 0;                  !- X,Y,Z Vertex 4 {m}

OS:Surface,
  {83f0b611-5859-48ed-9c67-7c6698f68579}, !- Handle
  Surface 14,                             !- Name
  Wall,                                   !- Surface Type
  ,                                       !- Construction Name
  {234ac46c-ffc3-4573-99a3-a40a78cb0ee7}, !- Space Name
  Surface,                                !- Outside Boundary Condition
  {15e54436-e188-4b13-bfb4-25843701c8c5}, !- Outside Boundary Condition Object
  NoSun,                                  !- Sun Exposure
  NoWind,                                 !- Wind Exposure
  ,                                       !- View Factor to Ground
  ,                                       !- Number of Vertices
  33.3375, 5.3419375, 2.7432,             !- X,Y,Z Vertex 1 {m}
  33.3375, 5.3419375, 0,                  !- X,Y,Z Vertex 2 {m}
  16.5735, 5.3419375, 0,                  !- X,Y,Z Vertex 3 {m}
  16.5735, 5.3419375, 2.7432;             !- X,Y,Z Vertex 4 {m}

OS:Surface,
  {53730ee6-f809-471a-b8b7-bb05f9bb7849}, !- Handle
  Surface 15,                             !- Name
  RoofCeiling,                            !- Surface Type
  ,                                       !- Construction Name
  {234ac46c-ffc3-4573-99a3-a40a78cb0ee7}, !- Space Name
  Surface,                                !- Outside Boundary Condition
  {5f67475b-8b60-42e5-8eb1-cc631dca0676}, !- Outside Boundary Condition Object
  NoSun,                                  !- Sun Exposure
  NoWind,                                 !- Wind Exposure
  ,                                       !- View Factor to Ground
  ,                                       !- Number of Vertices
  33.3375, 0, 2.7432,                     !- X,Y,Z Vertex 1 {m}
  33.3375, 5.3419375, 2.7432,             !- X,Y,Z Vertex 2 {m}
  16.5735, 5.3419375, 2.7432,             !- X,Y,Z Vertex 3 {m}
  16.5735, 0, 2.7432;                     !- X,Y,Z Vertex 4 {m}

OS:Surface,
  {df65ba66-691a-4bc7-ab66-a62103c480e9}, !- Handle
  Surface 16,                             !- Name
  Wall,                                   !- Surface Type
  ,                                       !- Construction Name
  {234ac46c-ffc3-4573-99a3-a40a78cb0ee7}, !- Space Name
  Surface,                                !- Outside Boundary Condition
  {14810237-4695-4b22-a6db-37edca1b81cb}, !- Outside Boundary Condition Object
  NoSun,                                  !- Sun Exposure
  NoWind,                                 !- Wind Exposure
  ,                                       !- View Factor to Ground
  ,                                       !- Number of Vertices
  16.5735, 5.3419375, 2.7432,             !- X,Y,Z Vertex 1 {m}
  16.5735, 5.3419375, 0,                  !- X,Y,Z Vertex 2 {m}
  16.5735, 0, 0,                          !- X,Y,Z Vertex 3 {m}
  16.5735, 0, 2.7432;                     !- X,Y,Z Vertex 4 {m}

OS:Surface,
  {9750e3db-ab55-4cb3-93f8-807563459cf0}, !- Handle
  Surface 17,                             !- Name
  Wall,                                   !- Surface Type
  ,                                       !- Construction Name
  {234ac46c-ffc3-4573-99a3-a40a78cb0ee7}, !- Space Name
  Surface,                                !- Outside Boundary Condition
  {90084885-6457-42a1-be13-9cb390c97b73}, !- Outside Boundary Condition Object
  NoSun,                                  !- Sun Exposure
  NoWind,                                 !- Wind Exposure
  ,                                       !- View Factor to Ground
  ,                                       !- Number of Vertices
  33.3375, 0, 2.7432,                     !- X,Y,Z Vertex 1 {m}
  33.3375, 0, 0,                          !- X,Y,Z Vertex 2 {m}
  33.3375, 5.3419375, 0,                  !- X,Y,Z Vertex 3 {m}
  33.3375, 5.3419375, 2.7432;             !- X,Y,Z Vertex 4 {m}

OS:Surface,
  {cc4872fe-0abd-4224-bdcd-434ba9df8fa0}, !- Handle
  Surface 18,                             !- Name
  Wall,                                   !- Surface Type
  ,                                       !- Construction Name
  {234ac46c-ffc3-4573-99a3-a40a78cb0ee7}, !- Space Name
  Outdoors,                               !- Outside Boundary Condition
  ,                                       !- Outside Boundary Condition Object
  SunExposed,                             !- Sun Exposure
  WindExposed,                            !- Wind Exposure
  ,                                       !- View Factor to Ground
  ,                                       !- Number of Vertices
  16.5735, 0, 2.7432,                     !- X,Y,Z Vertex 1 {m}
  16.5735, 0, 0,                          !- X,Y,Z Vertex 2 {m}
  33.3375, 0, 0,                          !- X,Y,Z Vertex 3 {m}
  33.3375, 0, 2.7432;                     !- X,Y,Z Vertex 4 {m}

OS:Space,
  {01b8e746-81ac-4927-8f78-0abadefcbe48}, !- Handle
  EnclosedOffice_Bot_4,                   !- Name
  {6c28f6d8-bae0-4a5f-aa32-5201d91b27d3}, !- Space Type Name
  ,                                       !- Default Construction Set Name
  ,                                       !- Default Schedule Set Name
  -0,                                     !- Direction of Relative North {deg}
  0,                                      !- X Origin {m}
  -1.6029653594091e-031,                  !- Y Origin {m}
  0,                                      !- Z Origin {m}
  {6ae3b0c2-4c48-48f5-899c-4535e4abda9b}, !- Building Story Name
  {5052c5c7-21bc-4181-8a79-2e8588320c42}, !- Thermal Zone Name
  ,                                       !- Part of Total Floor Area
  ,                                       !- Design Specification Outdoor Air Object Name
  ;                                       !- Building Unit Name

OS:Surface,
  {92e0bc99-320e-4c25-b0d7-2947c3d2731b}, !- Handle
  Surface 19,                             !- Name
  Floor,                                  !- Surface Type
  ,                                       !- Construction Name
  {01b8e746-81ac-4927-8f78-0abadefcbe48}, !- Space Name
  Ground,                                 !- Outside Boundary Condition
  ,                                       !- Outside Boundary Condition Object
  NoSun,                                  !- Sun Exposure
  NoWind,                                 !- Wind Exposure
  ,                                       !- View Factor to Ground
  ,                                       !- Number of Vertices
  41.8417375, 5.3419375, 0,               !- X,Y,Z Vertex 1 {m}
  41.8417375, 0, 0,                       !- X,Y,Z Vertex 2 {m}
  33.3375, 0, 0,                          !- X,Y,Z Vertex 3 {m}
  33.3375, 5.3419375, 0;                  !- X,Y,Z Vertex 4 {m}

OS:Surface,
  {5444054f-3e70-427a-8c65-6e1f92bef721}, !- Handle
  Surface 20,                             !- Name
  Wall,                                   !- Surface Type
  ,                                       !- Construction Name
  {01b8e746-81ac-4927-8f78-0abadefcbe48}, !- Space Name
  Surface,                                !- Outside Boundary Condition
  {e620d739-762c-42d0-b7ff-4c42b717dc9b}, !- Outside Boundary Condition Object
  NoSun,                                  !- Sun Exposure
  NoWind,                                 !- Wind Exposure
  ,                                       !- View Factor to Ground
  ,                                       !- Number of Vertices
  41.8417375, 5.3419375, 2.7432,          !- X,Y,Z Vertex 1 {m}
  41.8417375, 5.3419375, 0,               !- X,Y,Z Vertex 2 {m}
  33.3375, 5.3419375, 0,                  !- X,Y,Z Vertex 3 {m}
  33.3375, 5.3419375, 2.7432;             !- X,Y,Z Vertex 4 {m}

OS:Surface,
  {90084885-6457-42a1-be13-9cb390c97b73}, !- Handle
  Surface 21,                             !- Name
  Wall,                                   !- Surface Type
  ,                                       !- Construction Name
  {01b8e746-81ac-4927-8f78-0abadefcbe48}, !- Space Name
  Surface,                                !- Outside Boundary Condition
  {9750e3db-ab55-4cb3-93f8-807563459cf0}, !- Outside Boundary Condition Object
  NoSun,                                  !- Sun Exposure
  NoWind,                                 !- Wind Exposure
  ,                                       !- View Factor to Ground
  ,                                       !- Number of Vertices
  33.3375, 5.3419375, 2.7432,             !- X,Y,Z Vertex 1 {m}
  33.3375, 5.3419375, 0,                  !- X,Y,Z Vertex 2 {m}
  33.3375, 0, 0,                          !- X,Y,Z Vertex 3 {m}
  33.3375, 0, 2.7432;                     !- X,Y,Z Vertex 4 {m}

OS:Surface,
  {7903bab5-19a0-47e1-93fa-88a1831c144e}, !- Handle
  Surface 22,                             !- Name
  Wall,                                   !- Surface Type
  ,                                       !- Construction Name
  {01b8e746-81ac-4927-8f78-0abadefcbe48}, !- Space Name
  Surface,                                !- Outside Boundary Condition
  {483def8c-a833-4c12-82f0-d5efaf2c8d77}, !- Outside Boundary Condition Object
  NoSun,                                  !- Sun Exposure
  NoWind,                                 !- Wind Exposure
  ,                                       !- View Factor to Ground
  ,                                       !- Number of Vertices
  41.8417375, 0, 2.7432,                  !- X,Y,Z Vertex 1 {m}
  41.8417375, 0, 0,                       !- X,Y,Z Vertex 2 {m}
  41.8417375, 5.3419375, 0,               !- X,Y,Z Vertex 3 {m}
  41.8417375, 5.3419375, 2.7432;          !- X,Y,Z Vertex 4 {m}

OS:Surface,
  {f3a3e826-998e-414f-b44e-d0d1c74c33ea}, !- Handle
  Surface 23,                             !- Name
  Wall,                                   !- Surface Type
  ,                                       !- Construction Name
  {01b8e746-81ac-4927-8f78-0abadefcbe48}, !- Space Name
  Outdoors,                               !- Outside Boundary Condition
  ,                                       !- Outside Boundary Condition Object
  SunExposed,                             !- Sun Exposure
  WindExposed,                            !- Wind Exposure
  ,                                       !- View Factor to Ground
  ,                                       !- Number of Vertices
  33.3375, 0, 2.7432,                     !- X,Y,Z Vertex 1 {m}
  33.3375, 0, 0,                          !- X,Y,Z Vertex 2 {m}
  41.8417375, 0, 0,                       !- X,Y,Z Vertex 3 {m}
  41.8417375, 0, 2.7432;                  !- X,Y,Z Vertex 4 {m}

OS:Surface,
  {165569b2-f724-479f-beb0-59ac81daf096}, !- Handle
  Surface 24,                             !- Name
  RoofCeiling,                            !- Surface Type
  ,                                       !- Construction Name
  {01b8e746-81ac-4927-8f78-0abadefcbe48}, !- Space Name
  Surface,                                !- Outside Boundary Condition
  {42ef1f73-58bf-4ce2-bbcd-4fbd18c866a7}, !- Outside Boundary Condition Object
  NoSun,                                  !- Sun Exposure
  NoWind,                                 !- Wind Exposure
  ,                                       !- View Factor to Ground
  ,                                       !- Number of Vertices
  41.8417375, 0, 2.7432,                  !- X,Y,Z Vertex 1 {m}
  41.8417375, 5.3419375, 2.7432,          !- X,Y,Z Vertex 2 {m}
  33.3375, 5.3419375, 2.7432,             !- X,Y,Z Vertex 3 {m}
  33.3375, 0, 2.7432;                     !- X,Y,Z Vertex 4 {m}

OS:Space,
  {5c3f4599-a380-4a4b-9c7b-8ddf191cfd3c}, !- Handle
  ConfRoom_Bot_2,                         !- Name
  {6f3116e0-a595-48ab-a8e7-476ff64d83a6}, !- Space Type Name
  ,                                       !- Default Construction Set Name
  ,                                       !- Default Schedule Set Name
  -0,                                     !- Direction of Relative North {deg}
  0,                                      !- X Origin {m}
  -1.6029653594091e-031,                  !- Y Origin {m}
  0,                                      !- Z Origin {m}
  {6ae3b0c2-4c48-48f5-899c-4535e4abda9b}, !- Building Story Name
  {c4b7b7c7-ba71-4d45-a86c-43147cabd6f6}, !- Thermal Zone Name
  ,                                       !- Part of Total Floor Area
  ,                                       !- Design Specification Outdoor Air Object Name
  ;                                       !- Building Unit Name

OS:Surface,
  {9e6124db-9389-46ec-a29e-99e5a93b8902}, !- Handle
  Surface 25,                             !- Name
  Floor,                                  !- Surface Type
  ,                                       !- Construction Name
  {5c3f4599-a380-4a4b-9c7b-8ddf191cfd3c}, !- Space Name
  Ground,                                 !- Outside Boundary Condition
  ,                                       !- Outside Boundary Condition Object
  NoSun,                                  !- Sun Exposure
  NoWind,                                 !- Wind Exposure
  ,                                       !- View Factor to Ground
  ,                                       !- Number of Vertices
  49.911, 5.3419375, 0,                   !- X,Y,Z Vertex 1 {m}
  49.911, 0, 0,                           !- X,Y,Z Vertex 2 {m}
  41.8417375, 0, 0,                       !- X,Y,Z Vertex 3 {m}
  41.8417375, 5.3419375, 0;               !- X,Y,Z Vertex 4 {m}

OS:Surface,
  {35b9daf8-42ba-4f2a-8154-7c9bea01af2a}, !- Handle
  Surface 26,                             !- Name
  RoofCeiling,                            !- Surface Type
  ,                                       !- Construction Name
  {5c3f4599-a380-4a4b-9c7b-8ddf191cfd3c}, !- Space Name
  Surface,                                !- Outside Boundary Condition
  {8d25bb95-10d8-41e8-96d4-014ffa639085}, !- Outside Boundary Condition Object
  NoSun,                                  !- Sun Exposure
  NoWind,                                 !- Wind Exposure
  ,                                       !- View Factor to Ground
  ,                                       !- Number of Vertices
  49.911, 0, 2.7432,                      !- X,Y,Z Vertex 1 {m}
  49.911, 5.3419375, 2.7432,              !- X,Y,Z Vertex 2 {m}
  41.8417375, 5.3419375, 2.7432,          !- X,Y,Z Vertex 3 {m}
  41.8417375, 0, 2.7432;                  !- X,Y,Z Vertex 4 {m}
